** =========================================================================================
** Nodes (*Node)
** =========================================================================================
*Node
    1,        0,        0,        0
    2,        0,       10,        0
    3,       10,        0,        0
    4,       10,       10,        0
    5,        2,       10,        0
    6,        0,     10.5,        0
    7,        2,     10.5,        0
    8,        0,      0.5,        0
    9,        0,        1,        0
   10,        0,      1.5,        0
   11,        0,        2,        0
   12,        0,      2.5,        0
   13,        0,        3,        0
   14,        0,      3.5,        0
   15,        0,        4,        0
   16,        0,      4.5,        0
   17,        0,        5,        0
   18,        0,      5.5,        0
   19,        0,        6,        0
   20,        0,      6.5,        0
** ... 1284 like lines cut
** =========================================================================================
** Elements (*Element)
** =========================================================================================
*Element, Type = CPE8
   87,        2,       26,       86,       65,      466,      533,      534,      507
   88,       65,       86,       87,       66,      534,      535,      536,      508
   89,       66,       87,       88,       67,      536,      537,      538,      509
   90,       67,       88,       89,        5,      538,      539,      540,      510
   91,        5,       89,       90,       68,      540,      541,      542,      511
   92,       68,       90,       91,       69,      542,      543,      544,      512
   93,       69,       91,       92,       70,      544,      545,      546,      513
   94,       70,       92,       93,       71,      546,      547,      548,      514
   95,       71,       93,       94,       72,      548,      549,      550,      515
   96,       72,       94,       95,       73,      550,      551,      552,      516
   97,       73,       95,       96,       74,      552,      553,      554,      517
   98,       74,       96,       97,       75,      554,      555,      556,      518
   99,       75,       97,       98,       76,      556,      557,      558,      519
  100,       76,       98,       99,       77,      558,      559,      560,      520
  101,       77,       99,      100,       78,      560,      561,      562,      521
  102,       78,      100,      101,       79,      562,      563,      564,      522
  103,       79,      101,      102,       80,      564,      565,      566,      523
  104,       80,      102,      103,       81,      566,      567,      568,      524
  105,       81,      103,      104,       82,      568,      569,      570,      525
  106,       82,      104,       64,        4,      570,      571,      506,      526
** ... 384 like lines cut
** =========================================================================================
** Node Sets (*Nset)
** =========================================================================================
*Nset, Nset = nodes_foundation_top
6,  7,  83,  84,  85,  529,  530,  531,  532
** -----------------------------------------------------------------------------------------
*Nset, Nset = nodes_boundary_right
3,  4,  46,  47,  48,  49,  50,  51,  52,  53,  54,  55,  56,  57,  58,  59
60,  61,  62,  63,  64,  487,  488,  489,  490,  491,  492,  493,  494,  495,  496,  497
498,  499,  500,  501,  502,  503,  504,  505,  506
** -----------------------------------------------------------------------------------------
*Nset, Nset = nodes_boundary_bottom
1,  3,  27,  28,  29,  30,  31,  32,  33,  34,  35,  36,  37,  38,  39,  40
41,  42,  43,  44,  45,  467,  468,  469,  470,  471,  472,  473,  474,  475,  476,  477
478,  479,  480,  481,  482,  483,  484,  485,  486
** -----------------------------------------------------------------------------------------
*Nset, Nset = nodes_boundary_left
1,  2,  8,  9,  10,  11,  12,  13,  14,  15,  16,  17,  18,  19,  20,  21
22,  23,  24,  25,  26,  447,  448,  449,  450,  451,  452,  453,  454,  455,  456,  457
458,  459,  460,  461,  462,  463,  464,  465,  466
** -----------------------------------------------------------------------------------------
*Nset, Nset = nodes_foundation_left
1296, 6, 527
** ----------------
*Nset, Nset = soil_all
1,  2,  3,  4,  5,  8,  9,  10,  11,  12,  13,  14,  15,  16,  17,  18
19,  20,  21,  22,  23,  24,  25,  26,  447,  448,  449,  450,  451,  452,  453,  454
455,  456,  457,  458,  459,  460,  461,  462,  463,  464,  465,  466,  27,  28,  29,  30
31,  32,  33,  34,  35,  36,  37,  38,  39,  40,  41,  42,  43,  44,  45,  467
468,  469,  470,  471,  472,  473,  474,  475,  476,  477,  478,  479,  480,  481,  482,  483
484,  485,  486,  65,  66,  67,  507,  508,  509,  510,  46,  47,  48,  49,  50,  51
52,  53,  54,  55,  56,  57,  58,  59,  60,  61,  62,  63,  64,  487,  488,  489
490,  491,  492,  493,  494,  495,  496,  497,  498,  499,  500,  501,  502,  503,  504,  505
506,  68,  69,  70,  71,  72,  73,  74,  75,  76,  77,  78,  79,  80,  81,  82
511,  512,  513,  514,  515,  516,  517,  518,  519,  520,  521,  522,  523,  524,  525,  526
86,  87,  88,  89,  90,  91,  92,  93,  94,  95,  96,  97,  98,  99,  100,  101
102,  103,  104,  105,  106,  107,  108,  109,  110,  111,  112,  113,  114,  115,  116,  117
118,  119,  120,  121,  122,  123,  124,  125,  126,  127,  128,  129,  130,  131,  132,  133
134,  135,  136,  137,  138,  139,  140,  141,  142,  143,  144,  145,  146,  147,  148,  149
150,  151,  152,  153,  154,  155,  156,  157,  158,  159,  160,  161,  162,  163,  164,  165
166,  167,  168,  169,  170,  171,  172,  173,  174,  175,  176,  177,  178,  179,  180,  181
182,  183,  184,  185,  186,  187,  188,  189,  190,  191,  192,  193,  194,  195,  196,  197
198,  199,  200,  201,  202,  203,  204,  205,  206,  207,  208,  209,  210,  211,  212,  213
214,  215,  216,  217,  218,  219,  220,  221,  222,  223,  224,  225,  226,  227,  228,  229
230,  231,  232,  233,  234,  235,  236,  237,  238,  239,  240,  241,  242,  243,  244,  245
** ... 61 like lines cut
** -----------------------------------------------------------------------------------------
** =========================================================================================
** Element Sets (*Elset)
** =========================================================================================
*Elset, Elset = soil_all
87,  88,  89,  90,  91,  92,  93,  94,  95,  96,  97,  98,  99,  100,  101,  102
103,  104,  105,  106,  107,  108,  109,  110,  111,  112,  113,  114,  115,  116,  117,  118
119,  120,  121,  122,  123,  124,  125,  126,  127,  128,  129,  130,  131,  132,  133,  134
135,  136,  137,  138,  139,  140,  141,  142,  143,  144,  145,  146,  147,  148,  149,  150
151,  152,  153,  154,  155,  156,  157,  158,  159,  160,  161,  162,  163,  164,  165,  166
167,  168,  169,  170,  171,  172,  173,  174,  175,  176,  177,  178,  179,  180,  181,  182
183,  184,  185,  186,  187,  188,  189,  190,  191,  192,  193,  194,  195,  196,  197,  198
199,  200,  201,  202,  203,  204,  205,  206,  207,  208,  209,  210,  211,  212,  213,  214
215,  216,  217,  218,  219,  220,  221,  222,  223,  224,  225,  226,  227,  228,  229,  230
231,  232,  233,  234,  235,  236,  237,  238,  239,  240,  241,  242,  243,  244,  245,  246
247,  248,  249,  250,  251,  252,  253,  254,  255,  256,  257,  258,  259,  260,  261,  262
263,  264,  265,  266,  267,  268,  269,  270,  271,  272,  273,  274,  275,  276,  277,  278
279,  280,  281,  282,  283,  284,  285,  286,  287,  288,  289,  290,  291,  292,  293,  294
295,  296,  297,  298,  299,  300,  301,  302,  303,  304,  305,  306,  307,  308,  309,  310
311,  312,  313,  314,  315,  316,  317,  318,  319,  320,  321,  322,  323,  324,  325,  326
327,  328,  329,  330,  331,  332,  333,  334,  335,  336,  337,  338,  339,  340,  341,  342
343,  344,  345,  346,  347,  348,  349,  350,  351,  352,  353,  354,  355,  356,  357,  358
359,  360,  361,  362,  363,  364,  365,  366,  367,  368,  369,  370,  371,  372,  373,  374
375,  376,  377,  378,  379,  380,  381,  382,  383,  384,  385,  386,  387,  388,  389,  390
391,  392,  393,  394,  395,  396,  397,  398,  399,  400,  401,  402,  403,  404,  405,  406
** ... 5 like lines cut
** -----------------------------------------------------------------------------------------
*Elset, Elset = foundation_all
487,  488,  489,  490
*Surface, name = foundation_bottom
foundation_all, S2
** --------------------------------------------------------------------
*Elset, Elset = soil_top
87, 88, 89, 90, 91
*Surface, name=soil_top
soil_top, S4
** -----------------------------------------------------------------------------------------
*Elset, Elset = all
87,  88,  89,  90,  91,  92,  93,  94,  95,  96,  97,  98,  99,  100,  101,  102
103,  104,  105,  106,  107,  108,  109,  110,  111,  112,  113,  114,  115,  116,  117,  118
119,  120,  121,  122,  123,  124,  125,  126,  127,  128,  129,  130,  131,  132,  133,  134
135,  136,  137,  138,  139,  140,  141,  142,  143,  144,  145,  146,  147,  148,  149,  150
151,  152,  153,  154,  155,  156,  157,  158,  159,  160,  161,  162,  163,  164,  165,  166
167,  168,  169,  170,  171,  172,  173,  174,  175,  176,  177,  178,  179,  180,  181,  182
183,  184,  185,  186,  187,  188,  189,  190,  191,  192,  193,  194,  195,  196,  197,  198
199,  200,  201,  202,  203,  204,  205,  206,  207,  208,  209,  210,  211,  212,  213,  214
215,  216,  217,  218,  219,  220,  221,  222,  223,  224,  225,  226,  227,  228,  229,  230
231,  232,  233,  234,  235,  236,  237,  238,  239,  240,  241,  242,  243,  244,  245,  246
247,  248,  249,  250,  251,  252,  253,  254,  255,  256,  257,  258,  259,  260,  261,  262
263,  264,  265,  266,  267,  268,  269,  270,  271,  272,  273,  274,  275,  276,  277,  278
279,  280,  281,  282,  283,  284,  285,  286,  287,  288,  289,  290,  291,  292,  293,  294
295,  296,  297,  298,  299,  300,  301,  302,  303,  304,  305,  306,  307,  308,  309,  310
311,  312,  313,  314,  315,  316,  317,  318,  319,  320,  321,  322,  323,  324,  325,  326
327,  328,  329,  330,  331,  332,  333,  334,  335,  336,  337,  338,  339,  340,  341,  342
343,  344,  345,  346,  347,  348,  349,  350,  351,  352,  353,  354,  355,  356,  357,  358
359,  360,  361,  362,  363,  364,  365,  366,  367,  368,  369,  370,  371,  372,  373,  374
375,  376,  377,  378,  379,  380,  381,  382,  383,  384,  385,  386,  387,  388,  389,  390
391,  392,  393,  394,  395,  396,  397,  398,  399,  400,  401,  402,  403,  404,  405,  406
** ... 6 like lines cut
** --------------------------------------------------------------------
*Surface INTERACTION,name=penalty
1
**surface behavior, penalty
**2d5
**0.0000001d0,0.1d0
*Contact Pair,interaction=penalty,type=surface to surface
soil_top, foundation_bottom
** -----------------------------------------------------------------------------------------
** =========================================================================================
** Solid section and step definition
** =========================================================================================
** Soil
*SOLID SECTION, ELSET=soil_all, MATERIAL=soil
**---------------------------------- Materials --------------------------------------
** 
*material, name = elastic
*Elastic
5000000000, 0.3
*Density
0.5
**
*material, name = soil
*Density
1.6,
*Depvar
    50,
*User Material, constants=15, unsymm
 0.578,     0.37,    4e+06,     0.27,    0.677,    1.054,    1.212,     0.14
      2.5,      1.2,      2.4,   0.0001,      0.1,       6.,       0.
**
**
** Foundation
*SOLID SECTION, ELSET=foundation_all, MATERIAL=concrete
*MATERIAL, NAME=concrete
*DENSITY
0.001
*Elastic
30000000.0, 0.3
*********************************************************************
*INITIAL CONDITIONS, TYPE=STRESS, GEOSTATIC
soil_all, 0,10 ,-160.0d0,0 , 0.5, 0.5
**
***********************************************************************
*INITIAL CONDITIONS, TYPE=SOLUTION,USER
***********************************************************************
*Amplitude, name=Sinusfunktion, definition=PERIODIC
1,         6.28319,              0.,              0.
0.,              1.
*amplitude,name=direkt
0,1,1,1
*********************************************************************
***************************** STEP 1 ********************************
*********************************************************************
*STEP, NAME=Step1, inc= 1
*GEOStatic
*DLOAD
all, GRAV, 10.0d0, 0,-1,0
*BOUNDARY
nodes_boundary_left, 1,1, 0.0d0
nodes_foundation_left, 1,1, 0.0d0
nodes_foundation_left, 2,2, 0.0d0
nodes_boundary_right, 1,1, 0.0d0
nodes_boundary_bottom, 2,2, 0.0d0
*controls,parameters=field,field=displacement
0.15,0.06
*END STEP
**********************************************************************
**************************** STEP 2 **********************************
**********************************************************************
*STEP, NAME=Step2, INC=20000
*STATIC
0.1, 1.0, 0.001, 0.1
*BOUNDARY,op=new
nodes_boundary_left, 1,1, 0.0d0
nodes_foundation_left, 1,1, 0.0d0
nodes_boundary_right, 1,1, 0.0d0
nodes_boundary_bottom, 2,2, 0.0d0
*DLOAD
foundation_all, P4, 10d0
*controls,parameters=field,field=displacement
0.15,0.06
*END STEP
**********************************************************************
**************************** STEP 2 **********************************
**********************************************************************
*STEP, NAME=Step3, INC=20000
*STATIC
0.1, 1.0, 0.001, 0.1
*DLOAD,op=new,Amplitude=direkt
all, GRAV, 10.0d0, 0,-1,0
*DLOAD,Amplitude=direkt,op=new
foundation_all, P4, 10d0
*DLOAD, Amplitude=Sinusfunktion,op=new
foundation_all, P4, 3d0
*controls,parameters=field,field=displacement
0.15,0.06
*END STEP
**********************************************************************
**************************** STEP 2 **********************************
**********************************************************************
*STEP, NAME=Step4, INC=20000
*STATIC
1, 1.0, 0.001, 1
*DLOAD,op=new,Amplitude=direkt
all, GRAV, 10.0d0, 0,-1,0
*DLOAD,Amplitude=direkt,op=new
foundation_all, P4, 10d0
**
*Output, field
*Node Output
U
*Element Output
S,E,SDV
***********
*controls,parameters=field,field=displacement
0.15,0.06
*end step
**
*STEP, NAME=Step5, INC=20000
*STATIC
0.01, 1000000.0, 0.001, 10000
*DLOAD,op=new,Amplitude=direkt
all, GRAV, 10.0d0, 0,-1,0
*DLOAD,Amplitude=direkt,op=new
foundation_all, P4, 10d0
**
*Output, field
*Node Output
U
*Element Output
S,E,SDV
***********
*controls,parameters=field,field=displacement
0.15,0.06
*end step
